Version 4
SHEET 1 880 680
WIRE 416 96 208 96
WIRE 208 160 208 96
WIRE 240 208 208 208
WIRE 416 208 416 96
WIRE 160 240 -48 240
WIRE 208 272 208 256
WIRE 240 272 240 208
WIRE 240 272 208 272
WIRE -48 288 -48 240
WIRE -48 416 -48 368
WIRE 208 416 208 272
WIRE 208 416 -48 416
WIRE 416 416 416 288
WIRE 416 416 208 416
WIRE 208 464 208 416
FLAG 208 464 0
SYMBOL voltage -48 272 R0
WINDOW 123 0 0 Left 0
WINDOW 39 0 0 Left 0
SYMATTR InstName V1
SYMATTR Value {Vgs}
SYMBOL voltage 416 192 R0
WINDOW 123 0 0 Left 0
WINDOW 39 24 124 Left 2
SYMATTR SpiceLine Rser=10
SYMATTR InstName Vds
SYMATTR Value 10
SYMBOL nmos4 160 160 R0
SYMATTR InstName M1
SYMATTR Value N018
SYMATTR Value2 l=0.5u w=10u
TEXT 536 176 Left 2 !.include cmos018_TT.lib
TEXT -80 488 Left 2 !.dc Vds 0 2 0.002
TEXT -80 520 Left 2 !.step param Vgs 0.40 0.70 0.1
